FoamFile
{
    version     2.0;
    format      ascii;
    class       dictionary;
    location    "system";
    object      preciceDict;
}

preciceConfig "../precice-config.xml";

participant openFOAM;

modules (FF);

interfaces
{
  Interface1
  {
    mesh        openFOAMMesh;
    patches           (inlet);
    locations         faceCenters;

    readData
    (
    );

    writeData
    (
      Pressure
    );
  };
};

