FoamFile
{
    version     2.0;
    format      ascii;
    class       dictionary;
    location    "constant";
    object      dynamicMeshDict;
}

dynamicFvMesh dynamicMotionSolverFvMesh;

motionSolverLibs ("libfvMotionSolvers.so");

solver      displacementLaplacian;
// OpenFOAM9 or newer: rename "solver" to "motionSolver"

displacementLaplacianCoeffs {
    diffusivity quadratic inverseDistance (s_FluidSide_Interface1 s_FluidSide_Interface2 s_FluidSide_Interface3);
}
